tests/data/power_flow/handling-of-links/merge-nodes-by-links-1-line-line-to-super-node-itself/sym_output.json
{
    "version": "1.0",
    "type": "sym_output",
    "is_batch": false,
    "attributes": {},
    "data": {
        "node": [
            {
                "id": 1,
                "energized": 1,
                "u_pu": 0.9989690772294032,
                "u": 10489.175310908733,
                "u_angle": -0.0030245289824915225,
                "p": 31084319.029628307,
                "q": 7195613.111142274
            },
            {
                "id": 2,
                "energized": 1,
                "u_pu": 0.9989690772294032,
                "u": 10489.175310908733,
                "u_angle": -0.0030245289824915225,
                "p": 0.0,
                "q": 0.0
            },
            {
                "id": 3,
                "energized": 1,
                "u_pu": 0.9989690772294032,
                "u": 10489.175310908733,
                "u_angle": -0.0030245289824915225,
                "p": 0.0,
                "q": 0.0
            },
            {
                "id": 4,
                "energized": 1,
                "u_pu": 0.9989690772294032,
                "u": 10489.175310908733,
                "u_angle": -0.0030245289824915225,
                "p": -10000000.0,
                "q": -2000000.0
            },
            {
                "id": 5,
                "energized": 1,
                "u_pu": 0.9410737181077501,
                "u": 9881.274040131377,
                "u_angle": -0.02993022951218366,
                "p": -20000000.0,
                "q": -5000000.0
            }
        ],
        "line": [
            {
                "id": 10,
                "energized": 1,
                "loading": 1.2045390772382534,
                "p_from": -20000000.00000012,
                "q_from": -5000000.000000031,
                "i_from": 1204.5390772382534,
                "s_from": 20615528.12808843,
                "p_to": 21084319.029628318,
                "q_to": 5541259.927274941,
                "i_to": 1199.9439246146924,
                "s_to": 21800322.716069363
            },
            {
                "id": 15,
                "energized": 1,
                "loading": 0.009512629755134673,
                "p_from": -3.5262049356832303e-08,
                "q_from": -172823.4080663477,
                "i_from": 9.512629755134673,
                "s_from": 172823.4080663477,
                "p_to": -3.5262049356832303e-08,
                "q_to": -172823.4080663477,
                "i_to": 9.512629755134673,
                "s_to": 172823.4080663477
            }
        ],
        "link": [
            {
                "id": 7,
                "energized": 1,
                "loading": 0.0,
                "p_from": 31084319.029628307,
                "q_from": 7195613.111142274,
                "i_from": 1756.2018135194494,
                "s_from": 31906296.205936458,
                "p_to": -31084319.029628307,
                "q_to": -7195613.111142274,
                "i_to": 1756.2018135194494,
                "s_to": 31906296.205936458
            },
            {
                "id": 8,
                "energized": 1,
                "loading": 0.0,
                "p_from": 21084319.02962834,
                "q_from": 5368436.519208621,
                "i_from": 1197.561321402034,
                "s_from": 21757036.094190784,
                "p_to": -21084319.02962834,
                "q_to": -5368436.519208621,
                "i_to": 1197.561321402034,
                "s_to": 21757036.094190784
            },
            {
                "id": 9,
                "energized": 1,
                "loading": 0.0,
                "p_from": -10000000.0,
                "q_from": -2000000.0,
                "i_from": 561.3254048131458,
                "s_from": 10198039.02718557,
                "p_to": 10000000.0,
                "q_to": 2000000.0,
                "i_to": 561.3254048131458,
                "s_to": 10198039.02718557
            }
        ],
        "sym_load": [
            {
                "id": 12,
                "energized": 1,
                "p": 20000000.0,
                "q": 5000000.0,
                "i": 1204.5390772382461,
                "s": 20615528.128088303,
                "pf": 0.9701425001453319
            },
            {
                "id": 13,
                "energized": 1,
                "p": 10000000.0,
                "q": 2000000.0,
                "i": 561.3254048131457,
                "s": 10198039.027185569,
                "pf": 0.9805806756909202
            }
        ],
        "source": [
            {
                "id": 14,
                "energized": 1,
                "p": 31084319.029628307,
                "q": 7195613.111142274,
                "i": 1756.2018135194492,
                "s": 31906296.205936458,
                "pf": 0.9742377751713088
            }
        ]
    }
}
